BEGIN Configuration File: examples/dragonflyconfig
// $Id$

// Copyright (c) 2007-2015, Trustees of The Leland Stanford Junior University
// All rights reserved.
//
// Redistribution and use in source and binary forms, with or without
// modification, are permitted provided that the following conditions are met:
//
// Redistributions of source code must retain the above copyright notice, this
// list of conditions and the following disclaimer.
// Redistributions in binary form must reproduce the above copyright notice,
// this list of conditions and the following disclaimer in the documentation
// and/or other materials provided with the distribution.
//
// THIS SOFTWARE IS PROVIDED BY THE COPYRIGHT HOLDERS AND CONTRIBUTORS "AS IS"
// AND ANY EXPRESS OR IMPLIED WARRANTIES, INCLUDING, BUT NOT LIMITED TO, THE
// IMPLIED WARRANTIES OF MERCHANTABILITY AND FITNESS FOR A PARTICULAR PURPOSE
// ARE DISCLAIMED. IN NO EVENT SHALL THE COPYRIGHT OWNER OR CONTRIBUTORS BE
// LIABLE FOR ANY DIRECT, INDIRECT, INCIDENTAL, SPECIAL, EXEMPLARY, OR
// CONSEQUENTIAL DAMAGES (INCLUDING, BUT NOT LIMITED TO, PROCUREMENT OF
// SUBSTITUTE GOODS OR SERVICES; LOSS OF USE, DATA, OR PROFITS; OR BUSINESS
// INTERRUPTION) HOWEVER CAUSED AND ON ANY THEORY OF LIABILITY, WHETHER IN
// CONTRACT, STRICT LIABILITY, OR TORT (INCLUDING NEGLIGENCE OR OTHERWISE)
// ARISING IN ANY WAY OUT OF THE USE OF THIS SOFTWARE, EVEN IF ADVISED OF THE
// POSSIBILITY OF SUCH DAMAGE.

// Dragonfly
//




vc_buf_size = 256;


wait_for_tail_credit = 0;

//
// Router architecture
//
vc_allocator = separable_input_first; 
sw_allocator = separable_input_first;
alloc_iters  = 1;

credit_delay   = 2;
routing_delay  = 0;
vc_alloc_delay = 1;
sw_alloc_delay = 1;
st_final_delay = 1;

input_speedup     = 1;
output_speedup    = 1;
internal_speedup  = 2.0;


warmup_periods = 3;
sim_count          = 1;

sample_period  = 10000;  


routing_function = min;
num_vcs     = 2;

priority = none;
traffic       = tornado; 

injection_rate = 0.30;
packet_size = 10;
injection_rate_uses_flits=1;

topology = dragonflynew;

k  = 4;
n  = 1;

watch_out=-;

stats_out = outputs/tornado_traffic/flit_injection_30.m;;END Configuration File: examples/dragonflyconfig
 Dragonfly 
 p = 4 n = 1
 each switch - total radix =  15
 # of switches = 264
 # of channels = 2904
 # of nodes ( size of network ) = 1056
 # of groups (_g) = 33
 # of routers per group (_a) = 8
Done links
Class 0:
Packet latency average = 3616.97
	minimum = 14
	maximum = 9958
Network latency average = 3614.18
	minimum = 14
	maximum = 9956
Slowest packet = 320
Flit latency average = 3605.7
	minimum = 5
	maximum = 9952
Slowest flit = 6355
Fragmentation average = 7.30356
	minimum = 0
	maximum = 102
Injected packet rate average = 0.00568267
	minimum = 0.0039 (at node 392)
	maximum = 0.0319 (at node 1)
Accepted packet rate average = 0.000377462
	minimum = 0 (at node 4)
	maximum = 0.0997 (at node 0)
Injected flit rate average = 0.0563861
	minimum = 0.0386 (at node 392)
	maximum = 0.319 (at node 1)
Accepted flit rate average= 0.00377737
	minimum = 0 (at node 4)
	maximum = 0.9982 (at node 1)
Injected packet length average = 9.92246
Accepted packet length average = 10.0073
Total in-flight flits = 560201 (0 measured)
latency change    = 1
throughput change = 1
Average latency for class 0 exceeded 500 cycles. Aborting simulation.
Too many sample periods needed to converge
Simulation unstable, ending ...
Total run time 8.02503
